data_findsym-output
_audit_creation_method FINDSYM
 
_cell_length_a    10.0474051218
_cell_length_b    5.8008960843
_cell_length_c    5.8129700000
_cell_angle_alpha 90.0000000000
_cell_angle_beta  125.1801989497
_cell_angle_gamma 90.0000000000
_cell_volume      276.9185139356
 
_symmetry_space_group_name_H-M "C 1 c 1"
_symmetry_Int_Tables_number 9
_space_group.reference_setting '009:C -2yc'
_space_group.transform_Pp_abc a,b,c;0,0,0
 
loop_
_space_group_symop_id
_space_group_symop_operation_xyz
1 x,y,z
2 x,-y,z+1/2
3 x+1/2,y+1/2,z
4 x+1/2,-y+1/2,z+1/2
 
loop_
_atom_site_label
_atom_site_type_symbol
_atom_site_symmetry_multiplicity
_atom_site_Wyckoff_label
_atom_site_fract_x
_atom_site_fract_y
_atom_site_fract_z
_atom_site_occupancy
_atom_site_fract_symmform
Pb1 Pb   4 a 0.73077  0.25000 -0.05769 1.00000 Dx,Dy,Dz 
Zr1 Zr   4 a -0.00093 0.25000 0.74721  1.00000 Dx,Dy,Dz 
O1  O    4 a 0.48978  0.46025 0.54080  1.00000 Dx,Dy,Dz 
O2  O    4 a 0.54538  0.01585 0.04080  1.00000 Dx,Dy,Dz 
O3  O    4 a 0.75564  0.30561 0.54081  1.00000 Dx,Dy,Dz 