data_findsym-output
_audit_creation_method FINDSYM
 
_cell_length_a    5.7322731299
_cell_length_b    5.7322731299
_cell_length_c    8.3952300000
_cell_angle_alpha 90.0000000000
_cell_angle_beta  90.0000000000
_cell_angle_gamma 90.0000000000
_cell_volume      275.8584867599
 
_symmetry_space_group_name_H-M "I 4 c m"
_symmetry_Int_Tables_number 108
_space_group.reference_setting '108:I 4 -2c'
_space_group.transform_Pp_abc a,b,c;0,0,0
 
loop_
_space_group_symop_id
_space_group_symop_operation_xyz
1 x,y,z
2 -x,-y,z
3 -y,x,z
4 y,-x,z
5 -x,y,z+1/2
6 x,-y,z+1/2
7 y,x,z+1/2
8 -y,-x,z+1/2
9 x+1/2,y+1/2,z+1/2
10 -x+1/2,-y+1/2,z+1/2
11 -y+1/2,x+1/2,z+1/2
12 y+1/2,-x+1/2,z+1/2
13 -x+1/2,y+1/2,z
14 x+1/2,-y+1/2,z
15 y+1/2,x+1/2,z
16 -y+1/2,-x+1/2,z
 
loop_
_atom_site_label
_atom_site_type_symbol
_atom_site_symmetry_multiplicity
_atom_site_Wyckoff_label
_atom_site_fract_x
_atom_site_fract_y
_atom_site_fract_z
_atom_site_occupancy
_atom_site_fract_symmform
Pb1 Pb   4 b 0.50000 0.00000 0.26877 1.00000 0,0,Dz   
Zr1 Zr   4 a 0.00000 0.00000 0.49987 1.00000 0,0,Dz   
O1  O    4 a 0.00000 0.00000 0.73963 1.00000 0,0,Dz   
O2  O    8 c 0.29870 0.79870 0.47479 1.00000 Dx,Dx,Dz 