
#======================================================================
# CRYSTAL DATA
#----------------------------------------------------------------------
data_VESTA_phase_1

_chemical_name_common                  'crystal                               '
_cell_length_a                         5.952020
_cell_length_b                         35.648422
_cell_length_c                         8.291817
_cell_angle_alpha                      90.000000
_cell_angle_beta                       90.000000
_cell_angle_gamma                      89.999969
_cell_volume                           1759.358732
_space_group_name_H-M_alt              'P 1'
_space_group_IT_number                 1

loop_
_space_group_symop_operation_xyz
   'x, y, z'

loop_
   _atom_site_label
   _atom_site_occupancy
   _atom_site_fract_x
   _atom_site_fract_y
   _atom_site_fract_z
   _atom_site_adp_type
   _atom_site_U_iso_or_equiv
   _atom_site_type_symbol
   Pb1        1.0     0.202303     0.747984     0.750000    Uiso  ? Pb
   Pb2        1.0     0.804446     0.665874     0.750000    Uiso  ? Pb
   Pb3        1.0     0.294525     0.915560     0.750000    Uiso  ? Pb
   Pb4        1.0     0.794527     0.834441     0.750000    Uiso  ? Pb
   Pb5        1.0     0.304446     0.084126     0.750000    Uiso  ? Pb
   Pb6        1.0     0.794527     0.334441     0.750000    Uiso  ? Pb
   Pb7        1.0     0.202302     0.247984     0.750000    Uiso  ? Pb
   Pb8        1.0     0.702302     0.502017     0.750000    Uiso  ? Pb
   Pb9        1.0     0.294526     0.415560     0.750000    Uiso  ? Pb
   Pb10       1.0     0.702302     0.002017     0.750000    Uiso  ? Pb
   Pb11       1.0     0.304446     0.584126     0.750000    Uiso  ? Pb
   Pb12       1.0     0.804446     0.165874     0.750000    Uiso  ? Pb
   Pb13       1.0     0.202300     0.752017     0.250000    Uiso  ? Pb
   Pb14       1.0     0.794525     0.665560     0.250000    Uiso  ? Pb
   Pb15       1.0     0.304446     0.915875     0.250000    Uiso  ? Pb
   Pb16       1.0     0.804445     0.834125     0.250000    Uiso  ? Pb
   Pb17       1.0     0.294527     0.084441     0.250000    Uiso  ? Pb
   Pb18       1.0     0.804446     0.334126     0.250000    Uiso  ? Pb
   Pb19       1.0     0.202301     0.252017     0.250000    Uiso  ? Pb
   Pb20       1.0     0.702302     0.497984     0.250000    Uiso  ? Pb
   Pb21       1.0     0.304447     0.415875     0.250000    Uiso  ? Pb
   Pb22       1.0     0.702302     0.997984     0.250000    Uiso  ? Pb
   Pb23       1.0     0.294525     0.584441     0.250000    Uiso  ? Pb
   Pb24       1.0     0.794526     0.165559     0.250000    Uiso  ? Pb
   Zr1        1.0     0.741197     0.750000     1.000000    Uiso  ? Zr
   Zr2        1.0     0.262414     0.666981     0.500166    Uiso  ? Zr
   Zr3        1.0     0.262414     0.666981     0.999834    Uiso  ? Zr
   Zr4        1.0     0.741197     0.750000     0.500000    Uiso  ? Zr
   Zr5        1.0     0.762415     0.916981     0.499833    Uiso  ? Zr
   Zr6        1.0     0.262414     0.833019     0.000167    Uiso  ? Zr
   Zr7        1.0     0.262414     0.833019     0.499833    Uiso  ? Zr
   Zr8        1.0     0.762415     0.916981     0.000167    Uiso  ? Zr
   Zr9        1.0     0.762415     0.083019     0.999834    Uiso  ? Zr
   Zr10       1.0     0.262415     0.333019     0.499833    Uiso  ? Zr
   Zr11       1.0     0.262415     0.333019     0.000167    Uiso  ? Zr
   Zr12       1.0     0.762415     0.083019     0.500166    Uiso  ? Zr
   Zr13       1.0     0.741197     0.250000     0.500000    Uiso  ? Zr
   Zr14       1.0     0.241197     0.500000     0.000000    Uiso  ? Zr
   Zr15       1.0     0.241197     0.500000     0.500000    Uiso  ? Zr
   Zr16       1.0     0.741197     0.250000     1.000000    Uiso  ? Zr
   Zr17       1.0     0.762415     0.416981     0.000167    Uiso  ? Zr
   Zr18       1.0     0.241198     0.000000     0.500000    Uiso  ? Zr
   Zr19       1.0     0.241198     0.000000     0.000000    Uiso  ? Zr
   Zr20       1.0     0.762415     0.416981     0.499833    Uiso  ? Zr
   Zr21       1.0     0.762415     0.583019     0.500166    Uiso  ? Zr
   Zr22       1.0     0.262415     0.166981     0.999834    Uiso  ? Zr
   Zr23       1.0     0.262415     0.166981     0.500166    Uiso  ? Zr
   Zr24       1.0     0.762415     0.583019     0.999834    Uiso  ? Zr
   O1         1.0     0.512104     0.706614     0.976501    Uiso  ? O
   O2         1.0     0.512104     0.706614     0.523499    Uiso  ? O
   O3         1.0     0.964632     0.870167     0.524320    Uiso  ? O
   O4         1.0     0.964632     0.870167     0.975680    Uiso  ? O
   O5         1.0     0.512573     0.039917     0.956142    Uiso  ? O
   O6         1.0     0.464631     0.379834     0.524317    Uiso  ? O
   O7         1.0     0.464631     0.379834     0.975683    Uiso  ? O
   O8         1.0     0.512573     0.039917     0.543858    Uiso  ? O
   O9         1.0     0.012574     0.210084     0.543858    Uiso  ? O
   O10        1.0     0.012099     0.543386     0.976501    Uiso  ? O
   O11        1.0     0.012099     0.543386     0.523499    Uiso  ? O
   O12        1.0     0.012574     0.210084     0.956142    Uiso  ? O
   O13        1.0     0.464631     0.879834     0.975683    Uiso  ? O
   O14        1.0     0.512574     0.539917     0.543858    Uiso  ? O
   O15        1.0     0.512574     0.539917     0.956142    Uiso  ? O
   O16        1.0     0.464631     0.879834     0.524317    Uiso  ? O
   O17        1.0     0.012098     0.043386     0.523500    Uiso  ? O
   O18        1.0     0.012578     0.710085     0.956144    Uiso  ? O
   O19        1.0     0.012578     0.710085     0.543856    Uiso  ? O
   O20        1.0     0.012098     0.043386     0.976500    Uiso  ? O
   O21        1.0     0.512099     0.206615     0.976501    Uiso  ? O
   O22        1.0     0.512099     0.206615     0.523499    Uiso  ? O
   O23        1.0     0.964632     0.370167     0.524318    Uiso  ? O
   O24        1.0     0.964632     0.370167     0.975682    Uiso  ? O
   O25        1.0     0.512095     0.793385     0.023500    Uiso  ? O
   O26        1.0     0.464629     0.620166     0.475684    Uiso  ? O
   O27        1.0     0.464629     0.620166     0.024316    Uiso  ? O
   O28        1.0     0.512095     0.793385     0.476500    Uiso  ? O
   O29        1.0     0.012099     0.956615     0.476501    Uiso  ? O
   O30        1.0     0.012568     0.789917     0.043861    Uiso  ? O
   O31        1.0     0.012568     0.789917     0.456139    Uiso  ? O
   O32        1.0     0.012099     0.956615     0.023499    Uiso  ? O
   O33        1.0     0.464631     0.120167     0.024318    Uiso  ? O
   O34        1.0     0.512098     0.293386     0.476501    Uiso  ? O
   O35        1.0     0.512098     0.293386     0.023499    Uiso  ? O
   O36        1.0     0.464631     0.120167     0.475682    Uiso  ? O
   O37        1.0     0.012572     0.289917     0.456142    Uiso  ? O
   O38        1.0     0.012097     0.456615     0.023499    Uiso  ? O
   O39        1.0     0.012097     0.456615     0.476501    Uiso  ? O
   O40        1.0     0.012572     0.289917     0.043859    Uiso  ? O
   O41        1.0     0.512573     0.460084     0.043858    Uiso  ? O
   O42        1.0     0.512574     0.960084     0.456142    Uiso  ? O
   O43        1.0     0.512574     0.960084     0.043858    Uiso  ? O
   O44        1.0     0.512573     0.460084     0.456142    Uiso  ? O
   O45        1.0     0.964628     0.629835     0.475685    Uiso  ? O
   O46        1.0     0.964630     0.129834     0.024316    Uiso  ? O
   O47        1.0     0.964630     0.129834     0.475684    Uiso  ? O
   O48        1.0     0.964628     0.629835     0.024315    Uiso  ? O
   O49        1.0     0.789497     0.761365     0.750000    Uiso  ? O
   O50        1.0     0.228038     0.656572     0.750000    Uiso  ? O
   O51        1.0     0.706580     0.924973     0.750000    Uiso  ? O
   O52        1.0     0.206580     0.825027     0.750000    Uiso  ? O
   O53        1.0     0.728037     0.093429     0.750000    Uiso  ? O
   O54        1.0     0.206581     0.325028     0.750000    Uiso  ? O
   O55        1.0     0.789497     0.261365     0.750000    Uiso  ? O
   O56        1.0     0.289496     0.488635     0.750000    Uiso  ? O
   O57        1.0     0.706581     0.424973     0.750000    Uiso  ? O
   O58        1.0     0.289496     0.988635     0.750000    Uiso  ? O
   O59        1.0     0.728036     0.593430     0.750000    Uiso  ? O
   O60        1.0     0.228038     0.156571     0.750000    Uiso  ? O
   O61        1.0     0.789495     0.738635     0.250000    Uiso  ? O
   O62        1.0     0.206581     0.674972     0.250000    Uiso  ? O
   O63        1.0     0.728039     0.906572     0.250000    Uiso  ? O
   O64        1.0     0.228036     0.843430     0.250000    Uiso  ? O
   O65        1.0     0.706581     0.075028     0.250000    Uiso  ? O
   O66        1.0     0.228037     0.343429     0.250000    Uiso  ? O
   O67        1.0     0.789496     0.238636     0.250000    Uiso  ? O
   O68        1.0     0.289496     0.511365     0.250000    Uiso  ? O
   O69        1.0     0.728038     0.406571     0.250000    Uiso  ? O
   O70        1.0     0.289496     0.011365     0.250000    Uiso  ? O
   O71        1.0     0.706581     0.575028     0.250000    Uiso  ? O
   O72        1.0     0.206581     0.174973     0.250000    Uiso  ? O
