data_findsym-output
_audit_creation_method FINDSYM
 
_cell_length_a    8.1074700000
_cell_length_b    5.8479300000
_cell_length_c    5.8377900000
_cell_angle_alpha 90.0000000000
_cell_angle_beta  90.0000000000
_cell_angle_gamma 90.0000000000
_cell_volume      276.7808151600
 
_symmetry_space_group_name_H-M "I m a 2"
_symmetry_Int_Tables_number 46
_space_group.reference_setting '046:I 2 -2a'
_space_group.transform_Pp_abc a,b,c;0,0,0
 
loop_
_space_group_symop_id
_space_group_symop_operation_xyz
1 x,y,z
2 -x,-y,z
3 -x+1/2,y,z
4 x+1/2,-y,z
5 x+1/2,y+1/2,z+1/2
6 -x+1/2,-y+1/2,z+1/2
7 -x,y+1/2,z+1/2
8 x,-y+1/2,z+1/2
 
loop_
_atom_site_label
_atom_site_type_symbol
_atom_site_symmetry_multiplicity
_atom_site_Wyckoff_label
_atom_site_fract_x
_atom_site_fract_y
_atom_site_fract_z
_atom_site_occupancy
_atom_site_fract_symmform
Pb1 Pb   4 b 0.25000 0.50883 0.04096 1.00000 0,Dy,Dz  
Zr1 Zr   4 a 0.00000 0.00000 0.00161 1.00000 0,0,Dz   
O1  O    4 b 0.25000 0.43577 0.45562 1.00000 0,Dy,Dz  
O2  O    8 c 0.03665 0.73864 0.22447 1.00000 Dx,Dy,Dz 